[Format]      =  4.0
[Frequency]   =  0
[Precision]   =  1e-008
[MinAngle]    =  27
[DoSmartMesh] =  1
[Depth]       =  68
[LengthUnits] =  millimeters
[ProblemType] =  planar
[Coordinates] =  cartesian
[ACSolver]    =  0
[PrevType]    =  0
[PrevSoln]    =  ""
[Comment]     =  "Add comments here."
[PointProps]   = 0
[BdryProps]   = 1
  <BeginBdry>
    <BdryName> = "Boundary"
    <BdryType> = 0
    <A_0> = 0
    <A_1> = 0
    <A_2> = 0
    <Phi> = 0
    <c0> = 0
    <c0i> = 0
    <c1> = 0
    <c1i> = 0
    <Mu_ssd> = 0
    <Sigma_ssd> = 0
    <innerangle> = 0
    <outerangle> = 0
  <EndBdry>
[BlockProps]  = 6
  <BeginBlock>
    <BlockName> = "Air"
    <Mu_x> = 1
    <Mu_y> = 1
    <H_c> = 0
    <H_cAngle> = 0
    <J_re> = 0
    <J_im> = 0
    <Sigma> = 0
    <d_lam> = 0
    <Phi_h> = 0
    <Phi_hx> = 0
    <Phi_hy> = 0
    <LamType> = 0
    <LamFill> = 1
    <NStrands> = 0
    <WireD> = 0
    <BHPoints> = 0
  <EndBlock>
  <BeginBlock>
    <BlockName> = "N35"
    <Mu_x> = 1.05
    <Mu_y> = 1.05
    <H_c> = 905659
    <H_cAngle> = 0
    <J_re> = 0
    <J_im> = 0
    <Sigma> = 0.66700000000000004
    <d_lam> = 0
    <Phi_h> = 0
    <Phi_hx> = 0
    <Phi_hy> = 0
    <LamType> = 0
    <LamFill> = 1
    <NStrands> = 0
    <WireD> = 0
    <BHPoints> = 0
  <EndBlock>
  <BeginBlock>
    <BlockName> = "1018 Steel"
    <Mu_x> = 529
    <Mu_y> = 529
    <H_c> = 0
    <H_cAngle> = 0
    <J_re> = 0
    <J_im> = 0
    <Sigma> = 5.7999999999999998
    <d_lam> = 0
    <Phi_h> = 20
    <Phi_hx> = 0
    <Phi_hy> = 0
    <LamType> = 0
    <LamFill> = 1
    <NStrands> = 0
    <WireD> = 0
    <BHPoints> = 13
      0	0
      0.25030000000000002	238.73249999999999
      0.92500000000000004	795.77499999999998
      1.25	1591.55
      1.3899999999999999	2387.3249999999998
      1.5249999999999999	3978.875
      1.71	7957.75
      1.8700000000000001	15915.5
      1.9550000000000001	23873.25
      2.02	39788.75
      2.1099999999999999	79577.5
      2.2250000000000001	159155
      2.4300000000000002	318310
  <EndBlock>
  <BeginBlock>
    <BlockName> = "22 AWG"
    <Mu_x> = 1
    <Mu_y> = 1
    <H_c> = 0
    <H_cAngle> = 0
    <J_re> = 0
    <J_im> = 0
    <Sigma> = 58
    <d_lam> = 0
    <Phi_h> = 0
    <Phi_hx> = 0
    <Phi_hy> = 0
    <LamType> = 3
    <LamFill> = 1
    <NStrands> = 1
    <WireD> = 7.4805241374744602
    <BHPoints> = 0
  <EndBlock>
  <BeginBlock>
    <BlockName> = "Hiperco-50"
    <Mu_x> = 3520
    <Mu_y> = 3520
    <H_c> = 0
    <H_cAngle> = 0
    <J_re> = 0
    <J_im> = 0
    <Sigma> = 2.5
    <d_lam> = 0.35999999999999999
    <Phi_h> = 20
    <Phi_hx> = 0
    <Phi_hy> = 0
    <LamType> = 0
    <LamFill> = 0.97941176470588198
    <NStrands> = 0
    <WireD> = 0
    <BHPoints> = 22
      0	0
      0.29072999999999999	81.170000000000002
      0.42870999999999998	106.8
      0.58955999999999997	136.84
      0.79627000000000003	179.91
      1.0201	233.41
      1.1980999999999999	283.70999999999998
      1.3989	344.75
      1.5596000000000001	402.92000000000002
      1.7835000000000001	536.63999999999999
      1.8985000000000001	670.10000000000002
      1.9906999999999999	893.79999999999995
      2.0543999999999998	1290.4000000000001
      2.1183999999999998	2209.8000000000002
      2.1476999999999999	3233.6999999999998
      2.177	4549
      2.2065000000000001	7297.8000000000002
      2.2416999999999998	11554
      2.2711999999999999	18294
      2.2890000000000001	25071
      2.3126000000000002	36690
      2.3410000000000002	62037
  <EndBlock>
  <BeginBlock>
    <BlockName> = "M-15 Steel"
    <Mu_x> = 1
    <Mu_y> = 1
    <H_c> = 0
    <H_cAngle> = 0
    <J_re> = 0
    <J_im> = 0
    <Sigma> = 1.8999999999999999
    <d_lam> = 0.35999999999999999
    <Phi_h> = 0
    <Phi_hx> = 0
    <Phi_hy> = 0
    <LamType> = 0
    <LamFill> = 0.97941176470588198
    <NStrands> = 0
    <WireD> = 0
    <BHPoints> = 47
      0	0
      0.050000000000000003	15.120714
      0.10000000000000001	22.718292000000002
      0.14999999999999999	27.842732999999999
      0.20000000000000001	31.871434000000001
      0.25	35.365043999999997
      0.29999999999999999	38.600588000000002
      0.34999999999999998	41.736201999999999
      0.40000000000000002	44.873978999999999
      0.45000000000000001	48.087806999999998
      0.5	51.437235999999999
      0.55000000000000004	54.975220999999998
      0.59999999999999998	58.752992999999996
      0.65000000000000002	62.823644000000002
      0.69999999999999996	67.245284999999996
      0.75	72.084406000000001
      0.80000000000000004	77.420100000000005
      0.84999999999999998	83.350020999999998
      0.90000000000000002	89.999611999999999
      0.94999999999999996	97.537352999999996
      1	106.20140600000001
      1.05	116.34846400000001
      1.1000000000000001	128.54732899999999
      1.1499999999999999	143.76543100000001
      1.2	163.75416899999999
      1.25	191.86815799999999
      1.3	234.833507
      1.3500000000000001	306.50976900000001
      1.3999999999999999	435.255202
      1.45	674.911968
      1.5	1108.3255690000001
      1.55	1813.085468
      1.6000000000000001	2801.2174209999998
      1.6499999999999999	4053.6531169999998
      1.7	5591.10689
      1.75	7448.318413
      1.8	9708.81567
      1.8500000000000001	12486.931615
      1.8999999999999999	16041.483644
      1.95	21249.420623999998
      2	31313.495878000002
      2.0499999999999998	53589.446877000002
      2.1000000000000001	88477.484601000004
      2.1499999999999999	124329.41054
      2.2000000000000002	159968.5693
      2.25	197751.604272
      2.2999999999999998	234024.75134700001
  <EndBlock>
[CircuitProps]  = 3
  <BeginCircuit>
    <CircuitName> = "A"
    <TotalAmps_re> = -23.75
    <TotalAmps_im> = 0
    <CircuitType> = 1
  <EndCircuit>
  <BeginCircuit>
    <CircuitName> = "B"
    <TotalAmps_re> = 47.5
    <TotalAmps_im> = 0
    <CircuitType> = 1
  <EndCircuit>
  <BeginCircuit>
    <CircuitName> = "C"
    <TotalAmps_re> = -23.75
    <TotalAmps_im> = 0
    <CircuitType> = 1
  <EndCircuit>
[NumPoints] = 321
-14.783665399828845	102.82265138259125	0	1
-15.773486841709779	102.68033654431801	0	1
-31.966828535786135	134.83271880098576	0	1
-32.368235307735887	136.29363783143444	0	1
-37.094662035445381	134.9949897502712	0	1
-36.432301577447248	132.58433037497983	0	1
-20.238959883370878	100.43194811831195	0	1
-14.557384806974323	101.24883529000061	0	1
-8.8758097305777728	102.0657224616893	0	1
-2.3967850174868643	137.47789888120852	0	1
-2.4404160415166429	139.97751811896117	0	1
-7.341260721395324	139.89197354141947	0	1
-7.3148192448570066	138.37714264038382	0	1
-13.793843957947912	102.96496622086455	0	1
14.783665399828877	102.82265138259125	0	1
13.793843957947939	102.96496622086453	0	1
7.3148192448570359	138.37714264038385	0	1
7.341260721396563	139.89197354131383	0	1
2.4404160415122211	139.97751811896109	0	1
2.3967850174868972	137.47789888120855	0	1
8.8758097305777977	102.06572246168922	0	1
14.557384806974351	101.24883529000059	0	1
20.238959883370903	100.43194811831192	0	1
36.432301577447269	132.5843303749798	0	1
37.094662035441182	134.99498975027259	0	1
32.368235307766817	136.29363783153542	0	1
31.966828535786167	134.83271880098576	0	1
15.773486841709804	102.68033654431801	0	1
103.88000000000001	-1.2698175844150228e-015	0	1
103.87999999999998	0.99999999999999833	0	1
103.87999999999995	-1.0000000000000004	0	1
138.00967016949835	12.452755743542758	0	1
138.00967016949838	-12.452755743542761	0	1
139.51284529052006	12.642166317786188	0	1
139.51284529062454	-12.642166317802397	0	1
138.90005622969184	17.505301727996823	0	1
138.90005622969261	-17.505301727992432	0	1
136.41967016949829	17.192755743542762	0	1
136.4196701694984	-17.192755743542751	0	1
102.28999999999998	5.7399999999999967	0	1
102.28999999999999	-5.7400000000000011	0	1
102.29000000000001	-1.3947176746853529e-015	0	1
87.389416990503079	56.161768117287451	0	1
86.848776173047469	57.00302165011864	0	1
109.36865455019276	85.08958565995411	0	1
110.53080284352255	86.061605800900111	0	1
107.38608237764683	89.82143686660217	0	1
105.46842395825162	88.217508505819495	0	1
82.948545581106387	60.130944495984075	0	1
86.051823873301487	55.302149217533064	0	1
89.155102165496629	50.473353939082095	0	1
124.05863499725841	59.290575489101656	0	1
126.31424364970738	60.368643022700056	0	1
124.2005451085342	64.791071645988907	0	1
122.8335906397204	64.137736134475801	0	1
87.93005780795869	55.320514584456298	0	1
99.672130099073996	29.266378004687713	0	1
99.39039754223252	30.225870978302201	0	1
128.91096210313779	50.830148883762	0	1
130.29988494449591	51.435380369102731	0	1
128.34181457293866	55.928881996024082	0	1
126.04995595566245	54.930190813316862	0	1
96.529391394757127	34.32591290785706	0	1
98.146536271026932	28.818423239309837	0	1
99.763681147296694	23.310933570762622	0	1
135.73747402521946	21.937534147317706	0	1
138.20544140115661	22.336453977999174	0	1
137.42330462604977	27.175240862753192	0	1
135.92765553383808	26.933485607628278	0	1
99.953862655915373	28.306885031073218	0	1
68.02693304223618	78.507265783920346	0	1
67.271183467881954	79.162126517865602	0	1
80.965949046024392	112.45557025322773	0	1
81.807172448162362	113.71563175878589	0	1
77.730568437740857	116.43719311090175	0	1
76.34246749661223	114.35796830890513	0	1
62.647701918469743	81.064524573543011	0	1
66.985704475263219	77.305623960697034	0	1
71.323707032056646	73.546723347851156	0	1
102.3293031669306	91.840247019388258	0	1
104.18981709749092	93.510123635845886	0	1
100.91579607540827	97.15791513180649	0	1
99.788278751464318	96.145928721512178	0	1
68.782682616590435	77.852405049975047	0	1
43.153311550635969	94.492571677427364	0	1
42.243679555281432	94.907986690429226	0	1
46.003863873186987	130.71107334361284	0	1
46.456011467040071	132.15709352447723	0	1
41.777786124499514	133.61990044800709	0	1
41.031698344533567	131.23382563262808	0	1
37.271514026628019	95.430738979444484	0	1
42.492801679962966	93.046256804813623	0	1
47.714089333297885	90.661774630182876	0	1
72.309859769816896	116.94956793114397	0	1
73.624551204737173	119.07597015813415	0	1
69.455449413601201	121.65360215401512	0	1
68.658713982509425	120.36494996538657	0	1
44.0629435459905	94.077156664425488	0	1
87.389416990503108	-56.161768117287529	0	1
87.93005780795859	-55.320514584456369	0	1
122.83359063972034	-64.137736134475944	0	1
124.20054510843757	-64.791071645946218	0	1
126.31424364970901	-60.368643022696013	0	1
124.05863499725834	-59.290575489101762	0	1
89.155102165496629	-50.473353939082131	0	1
86.051823873301458	-55.302149217533142	0	1
82.94854558110633	-60.130944495984124	0	1
105.46842395825161	-88.21750850581958	0	1
107.38608237764983	-89.82143686659893	0	1
110.53080284360152	-86.061605800970256	0	1
109.36865455019264	-85.089585659954196	0	1
86.848776173047455	-57.003021650118733	0	1
68.026933042236209	-78.507265783920317	0	1
68.782682616590463	-77.852405049975033	0	1
99.788278751464404	-96.145928721512135	0	1
100.91579607532772	-97.157915131738221	0	1
104.18981709749376	-93.510123635842405	0	1
102.32930316693061	-91.840247019388244	0	1
71.323707032056646	-73.546723347851128	0	1
66.985704475263205	-77.305623960697076	0	1
62.647701918469771	-81.064524573542968	0	1
76.342467496612301	-114.35796830890509	0	1
77.730568437744722	-116.43719311089944	0	1
81.807172448218481	-113.71563175887542	0	1
80.965949046024448	-112.45557025322765	0	1
67.271183467881983	-79.16212651786563	0	1
99.672130099073954	-29.266378004687724	0	1
99.953862655915344	-28.306885031073215	0	1
135.92765553383813	-26.933485607628295	0	1
137.42330462594492	-27.175240862739358	0	1
138.20544140115706	-22.336453977994744	0	1
135.73747402521948	-21.937534147317734	0	1
99.763681147296722	-23.310933570762632	0	1
98.146536271026918	-28.818423239309851	0	1
96.529391394757056	-34.325912907857088	0	1
126.04995595566244	-54.930190813316862	0	1
128.34181457294059	-55.928881996020117	0	1
130.29988494459167	-51.435380369147722	0	1
128.91096210313796	-50.830148883762043	0	1
99.390397542232549	-30.225870978302215	0	1
-43.153311550635941	94.492571677427364	0	1
-44.062943545990443	94.077156664425502	0	1
-68.65871398250944	120.36494996538659	0	1
-69.455449413543093	121.65360215392687	0	1
-73.624551204740783	119.07597015813157	0	1
-72.309859769816882	116.94956793114405	0	1
-47.714089333297871	90.661774630182862	0	1
-42.492801679962952	93.046256804813623	0	1
-37.271514026628005	95.430738979444513	0	1
-41.031698344533559	131.23382563262811	0	1
-41.777786124503812	133.61990044800601	0	1
-46.456011467068635	132.15709352457884	0	1
-46.003863873186944	130.7110733436129	0	1
-42.243679555281425	94.907986690429226	0	1
-68.026933042236223	-78.507265783920346	0	1
-67.271183467881968	-79.162126517865588	0	1
-80.965949046024448	-112.45557025322771	0	1
-81.80717244816239	-113.71563175878588	0	1
-77.730568437740871	-116.43719311090173	0	1
-76.342467496612258	-114.35796830890511	0	1
-62.647701918469757	-81.064524573542968	0	1
-66.985704475263248	-77.305623960697048	0	1
-71.323707032056674	-73.546723347851128	0	1
-102.32930316693063	-91.840247019388215	0	1
-104.18981709749094	-93.510123635845829	0	1
-100.91579607540829	-97.15791513180649	0	1
-99.788278751464347	-96.145928721512149	0	1
-68.782682616590463	-77.852405049975005	0	1
-87.389416990503079	-56.16176811728748	0	1
-86.848776173047426	-57.003021650118676	0	1
-109.36865455019276	-85.089585659954167	0	1
-110.53080284352252	-86.061605800900139	0	1
-107.3860823776468	-89.821436866602184	0	1
-105.46842395825158	-88.217508505819538	0	1
-82.948545581106387	-60.130944495984103	0	1
-86.051823873301458	-55.302149217533099	0	1
-89.155102165496615	-50.473353939082124	0	1
-124.05863499725835	-59.290575489101705	0	1
-126.31424364970732	-60.368643022700113	0	1
-124.20054510853419	-64.791071645988964	0	1
-122.83359063972037	-64.137736134475858	0	1
-87.93005780795869	-55.320514584456326	0	1
-99.672130099073982	-29.266378004687731	0	1
-99.390397542232535	-30.225870978302218	0	1
-128.91096210313785	-50.830148883762007	0	1
-130.29988494449594	-51.435380369102774	0	1
-128.3418145729386	-55.928881996024089	0	1
-126.04995595566245	-54.930190813316877	0	1
-96.529391394757113	-34.325912907857074	0	1
-98.146536271026946	-28.818423239309862	0	1
-99.763681147296708	-23.310933570762636	0	1
-135.73747402521937	-21.937534147317727	0	1
-138.20544140115661	-22.336453977999195	0	1
-137.42330462604977	-27.175240862753199	0	1
-135.92765553383811	-26.93348560762831	0	1
-99.953862655915373	-28.306885031073232	0	1
-43.153311550635948	-94.492571677427392	0	1
-42.243679555281417	-94.907986690429226	0	1
-46.003863873186951	-130.7110733436129	0	1
-46.456011467040057	-132.15709352447726	0	1
-41.777786124499499	-133.61990044800714	0	1
-41.031698344533538	-131.23382563262808	0	1
-37.271514026628012	-95.430738979444513	0	1
-42.492801679962952	-93.046256804813638	0	1
-47.714089333297871	-90.661774630182876	0	1
-72.309859769816882	-116.94956793114402	0	1
-73.624551204737159	-119.07597015813415	0	1
-69.455449413601201	-121.65360215401515	0	1
-68.658713982509411	-120.36494996538659	0	1
-44.062943545990464	-94.077156664425502	0	1
-14.783665399828877	-102.82265138259125	0	1
-13.793843957947939	-102.96496622086453	0	1
-7.3148192448570359	-138.37714264038385	0	1
-7.341260721396563	-139.89197354131383	0	1
-2.4404160415122211	-139.97751811896109	0	1
-2.3967850174868972	-137.47789888120855	0	1
-8.8758097305777977	-102.06572246168922	0	1
-14.557384806974351	-101.24883529000059	0	1
-20.238959883370903	-100.43194811831192	0	1
-36.432301577447269	-132.5843303749798	0	1
-37.094662035441182	-134.99498975027259	0	1
-32.368235307766817	-136.29363783153542	0	1
-31.966828535786167	-134.83271880098576	0	1
-15.773486841709804	-102.68033654431801	0	1
-99.672130099073982	29.266378004687716	0	1
-99.953862655915358	28.306885031073215	0	1
-135.92765553383816	26.933485607628281	0	1
-137.42330462594495	27.175240862739329	0	1
-138.20544140115709	22.336453977994733	0	1
-135.73747402521948	21.937534147317717	0	1
-99.763681147296737	23.310933570762618	0	1
-98.146536271026932	28.818423239309837	0	1
-96.52939139475707	34.325912907857067	0	1
-126.04995595566247	54.930190813316848	0	1
-128.34181457294059	55.928881996020102	0	1
-130.29988494459164	51.435380369147708	0	1
-128.91096210313799	50.830148883762021	0	1
-99.390397542232549	30.225870978302208	0	1
-87.389416990503179	56.161768117287444	0	1
-87.930057807958676	55.320514584456269	0	1
-122.83359063972041	64.137736134475801	0	1
-124.20054510843769	64.79107164594609	0	1
-126.31424364970906	60.368643022695885	0	1
-124.05863499725841	59.290575489101641	0	1
-89.155102165496686	50.473353939082081	0	1
-86.051823873301515	55.302149217533049	0	1
-82.94854558110643	60.130944495984039	0	1
-105.46842395825168	88.217508505819509	0	1
-107.38608237764991	89.821436866598873	0	1
-110.53080284360165	86.061605800970142	0	1
-109.36865455019276	85.089585659954125	0	1
-86.848776173047511	57.00302165011864	0	1
-68.026933042236195	78.50726578392036	0	1
-68.782682616590421	77.852405049975047	0	1
-99.788278751464375	96.145928721512121	0	1
-100.91579607532771	97.157915131738235	0	1
-104.18981709749374	93.510123635842419	0	1
-102.32930316693059	91.840247019388244	0	1
-71.323707032056618	73.546723347851156	0	1
-66.985704475263162	77.305623960697048	0	1
-62.647701918469743	81.064524573542968	0	1
-76.342467496612272	114.35796830890509	0	1
-77.730568437744722	116.43719311089947	0	1
-81.807172448218466	113.71563175887543	0	1
-80.96594904602442	112.45557025322766	0	1
-67.271183467881926	79.162126517865644	0	1
-103.88	1.1803058530546195e-014	0	1
-103.87999999999998	-0.99999999999998768	0	1
-138.00967016949832	-12.452755743542747	0	1
-139.51284529052006	-12.642166317786167	0	1
-138.90005622969181	-17.505301727996795	0	1
-136.41967016949832	-17.192755743542744	0	1
-102.28999999999996	-5.7399999999999842	0	1
-102.29000000000001	1.3829215550487106e-014	0	1
-102.28999999999999	5.7400000000000126	0	1
-136.41967016949837	17.192755743542772	0	1
-138.90005622969261	17.505301727992446	0	1
-139.51284529062457	12.642166317802415	0	1
-138.00967016949838	12.452755743542779	0	1
-103.87999999999998	1.0000000000000129	0	1
43.153311550635983	-94.492571677427321	0	1
44.062943545990485	-94.077156664425473	0	1
68.658713982509482	-120.36494996538654	0	1
69.45544941354315	-121.65360215392683	0	1
73.62455120474084	-119.07597015813153	0	1
72.309859769816953	-116.94956793114399	0	1
47.714089333297899	-90.661774630182805	0	1
42.492801679963002	-93.046256804813623	0	1
37.271514026628047	-95.430738979444484	0	1
41.031698344533638	-131.23382563262805	0	1
41.777786124503891	-133.61990044800601	0	1
46.456011467068713	-132.15709352457878	0	1
46.003863873187022	-130.71107334361287	0	1
42.243679555281474	-94.907986690429198	0	1
14.783665399828823	-102.82265138259125	0	1
15.773486841709762	-102.680336544318	0	1
31.9668285357861	-134.83271880098582	0	1
32.368235307735858	-136.29363783143441	0	1
37.094662035445353	-134.99498975027117	0	1
36.43230157744722	-132.58433037497983	0	1
20.23895988337085	-100.43194811831195	0	1
14.557384806974303	-101.2488352900006	0	1
8.8758097305777532	-102.06572246168929	0	1
2.3967850174868359	-137.47789888120852	0	1
2.4404160415166127	-139.9775181189612	0	1
7.3412607213953027	-139.89197354141947	0	1
7.3148192448569747	-138.37714264038388	0	1
13.793843957947891	-102.96496622086455	0	1
300	0	0	0
-300	0	0	0
144.99999999999991	9.8532293435482643e-016	0	1
-144.99999999999991	-9.8532293435482643e-016	0	1
-50	2.7755575615628914e-017	0	1
50	-2.7755575615628914e-017	0	1
145.34999999999999	0	0	0
-145.34999999999999	0	0	0
89.999999999999986	-1.7971735211119721e-015	0	1
145.69999999999999	0	0	0
-145.69999999999999	0	0	0
240	0	0	0
-240	0	0	0
[NumSegments] = 397
0	1	-1	0	0	2
1	2	-1	0	0	2
2	3	-1	0	0	2
4	3	-1	0	0	2
4	5	-1	0	0	2
5	6	-1	0	0	2
7	6	-1	0	0	2
7	8	-1	0	0	2
8	9	-1	0	0	2
9	10	-1	0	0	2
11	10	-1	0	0	2
12	11	-1	0	0	2
13	12	-1	0	0	2
0	13	-1	0	0	2
14	15	-1	0	0	2
15	16	-1	0	0	2
16	17	-1	0	0	2
18	17	-1	0	0	2
18	19	-1	0	0	2
19	20	-1	0	0	2
21	20	-1	0	0	2
21	22	-1	0	0	2
22	23	-1	0	0	2
23	24	-1	0	0	2
25	24	-1	0	0	2
26	25	-1	0	0	2
27	26	-1	0	0	2
14	27	-1	0	0	2
28	29	-1	0	0	2
28	30	-1	0	0	2
29	31	-1	0	0	2
30	32	-1	0	0	2
31	33	-1	0	0	2
32	34	-1	0	0	2
35	33	-1	0	0	2
34	36	-1	0	0	2
35	37	-1	0	0	2
38	36	-1	0	0	2
37	39	-1	0	0	2
40	38	-1	0	0	2
41	39	-1	0	0	2
41	40	-1	0	0	2
42	43	-1	0	0	2
43	44	-1	0	0	2
44	45	-1	0	0	2
46	45	-1	0	0	2
46	47	-1	0	0	2
47	48	-1	0	0	2
49	48	-1	0	0	2
49	50	-1	0	0	2
50	51	-1	0	0	2
51	52	-1	0	0	2
53	52	-1	0	0	2
54	53	-1	0	0	2
55	54	-1	0	0	2
42	55	-1	0	0	2
56	57	-1	0	0	2
57	58	-1	0	0	2
58	59	-1	0	0	2
60	59	-1	0	0	2
60	61	-1	0	0	2
61	62	-1	0	0	2
63	62	-1	0	0	2
63	64	-1	0	0	2
64	65	-1	0	0	2
65	66	-1	0	0	2
67	66	-1	0	0	2
68	67	-1	0	0	2
69	68	-1	0	0	2
56	69	-1	0	0	2
70	71	-1	0	0	2
71	72	-1	0	0	2
72	73	-1	0	0	2
74	73	-1	0	0	2
74	75	-1	0	0	2
75	76	-1	0	0	2
77	76	-1	0	0	2
77	78	-1	0	0	2
78	79	-1	0	0	2
79	80	-1	0	0	2
81	80	-1	0	0	2
82	81	-1	0	0	2
83	82	-1	0	0	2
70	83	-1	0	0	2
84	85	-1	0	0	2
85	86	-1	0	0	2
86	87	-1	0	0	2
88	87	-1	0	0	2
88	89	-1	0	0	2
89	90	-1	0	0	2
91	90	-1	0	0	2
91	92	-1	0	0	2
92	93	-1	0	0	2
93	94	-1	0	0	2
95	94	-1	0	0	2
96	95	-1	0	0	2
97	96	-1	0	0	2
84	97	-1	0	0	2
98	99	-1	0	0	2
99	100	-1	0	0	2
100	101	-1	0	0	2
102	101	-1	0	0	2
102	103	-1	0	0	2
103	104	-1	0	0	2
105	104	-1	0	0	2
105	106	-1	0	0	2
106	107	-1	0	0	2
107	108	-1	0	0	2
109	108	-1	0	0	2
110	109	-1	0	0	2
111	110	-1	0	0	2
98	111	-1	0	0	2
112	113	-1	0	0	2
113	114	-1	0	0	2
114	115	-1	0	0	2
116	115	-1	0	0	2
116	117	-1	0	0	2
117	118	-1	0	0	2
119	118	-1	0	0	2
119	120	-1	0	0	2
120	121	-1	0	0	2
121	122	-1	0	0	2
123	122	-1	0	0	2
124	123	-1	0	0	2
125	124	-1	0	0	2
112	125	-1	0	0	2
126	127	-1	0	0	2
127	128	-1	0	0	2
128	129	-1	0	0	2
130	129	-1	0	0	2
130	131	-1	0	0	2
131	132	-1	0	0	2
133	132	-1	0	0	2
133	134	-1	0	0	2
134	135	-1	0	0	2
135	136	-1	0	0	2
137	136	-1	0	0	2
138	137	-1	0	0	2
139	138	-1	0	0	2
126	139	-1	0	0	2
140	141	-1	0	0	2
141	142	-1	0	0	2
142	143	-1	0	0	2
144	143	-1	0	0	2
144	145	-1	0	0	2
145	146	-1	0	0	2
147	146	-1	0	0	2
147	148	-1	0	0	2
148	149	-1	0	0	2
149	150	-1	0	0	2
151	150	-1	0	0	2
152	151	-1	0	0	2
153	152	-1	0	0	2
140	153	-1	0	0	2
154	155	-1	0	0	2
155	156	-1	0	0	2
156	157	-1	0	0	2
158	157	-1	0	0	2
158	159	-1	0	0	2
159	160	-1	0	0	2
161	160	-1	0	0	2
161	162	-1	0	0	2
162	163	-1	0	0	2
163	164	-1	0	0	2
165	164	-1	0	0	2
166	165	-1	0	0	2
167	166	-1	0	0	2
154	167	-1	0	0	2
168	169	-1	0	0	2
169	170	-1	0	0	2
170	171	-1	0	0	2
172	171	-1	0	0	2
172	173	-1	0	0	2
173	174	-1	0	0	2
175	174	-1	0	0	2
175	176	-1	0	0	2
176	177	-1	0	0	2
177	178	-1	0	0	2
179	178	-1	0	0	2
180	179	-1	0	0	2
181	180	-1	0	0	2
168	181	-1	0	0	2
182	183	-1	0	0	2
183	184	-1	0	0	2
184	185	-1	0	0	2
186	185	-1	0	0	2
186	187	-1	0	0	2
187	188	-1	0	0	2
189	188	-1	0	0	2
189	190	-1	0	0	2
190	191	-1	0	0	2
191	192	-1	0	0	2
193	192	-1	0	0	2
194	193	-1	0	0	2
195	194	-1	0	0	2
182	195	-1	0	0	2
196	197	-1	0	0	2
197	198	-1	0	0	2
198	199	-1	0	0	2
200	199	-1	0	0	2
200	201	-1	0	0	2
201	202	-1	0	0	2
203	202	-1	0	0	2
203	204	-1	0	0	2
204	205	-1	0	0	2
205	206	-1	0	0	2
207	206	-1	0	0	2
208	207	-1	0	0	2
209	208	-1	0	0	2
196	209	-1	0	0	2
210	211	-1	0	0	2
211	212	-1	0	0	2
212	213	-1	0	0	2
214	213	-1	0	0	2
214	215	-1	0	0	2
215	216	-1	0	0	2
217	216	-1	0	0	2
217	218	-1	0	0	2
218	219	-1	0	0	2
219	220	-1	0	0	2
221	220	-1	0	0	2
222	221	-1	0	0	2
223	222	-1	0	0	2
210	223	-1	0	0	2
224	225	-1	0	0	2
225	226	-1	0	0	2
226	227	-1	0	0	2
228	227	-1	0	0	2
228	229	-1	0	0	2
229	230	-1	0	0	2
231	230	-1	0	0	2
231	232	-1	0	0	2
232	233	-1	0	0	2
233	234	-1	0	0	2
235	234	-1	0	0	2
236	235	-1	0	0	2
237	236	-1	0	0	2
224	237	-1	0	0	2
238	239	-1	0	0	2
239	240	-1	0	0	2
240	241	-1	0	0	2
242	241	-1	0	0	2
242	243	-1	0	0	2
243	244	-1	0	0	2
245	244	-1	0	0	2
245	246	-1	0	0	2
246	247	-1	0	0	2
247	248	-1	0	0	2
249	248	-1	0	0	2
250	249	-1	0	0	2
251	250	-1	0	0	2
238	251	-1	0	0	2
252	253	-1	0	0	2
253	254	-1	0	0	2
254	255	-1	0	0	2
256	255	-1	0	0	2
256	257	-1	0	0	2
257	258	-1	0	0	2
259	258	-1	0	0	2
259	260	-1	0	0	2
260	261	-1	0	0	2
261	262	-1	0	0	2
263	262	-1	0	0	2
264	263	-1	0	0	2
265	264	-1	0	0	2
252	265	-1	0	0	2
266	267	-1	0	0	2
267	268	-1	0	0	2
268	269	-1	0	0	2
270	269	-1	0	0	2
270	271	-1	0	0	2
271	272	-1	0	0	2
273	272	-1	0	0	2
273	274	-1	0	0	2
274	275	-1	0	0	2
275	276	-1	0	0	2
277	276	-1	0	0	2
278	277	-1	0	0	2
279	278	-1	0	0	2
266	279	-1	0	0	2
280	281	-1	0	0	2
281	282	-1	0	0	2
282	283	-1	0	0	2
284	283	-1	0	0	2
284	285	-1	0	0	2
285	286	-1	0	0	2
287	286	-1	0	0	2
287	288	-1	0	0	2
288	289	-1	0	0	2
289	290	-1	0	0	2
291	290	-1	0	0	2
292	291	-1	0	0	2
293	292	-1	0	0	2
280	293	-1	0	0	2
294	295	-1	0	0	2
295	296	-1	0	0	2
296	297	-1	0	0	2
298	297	-1	0	0	2
298	299	-1	0	0	2
299	300	-1	0	0	2
301	300	-1	0	0	2
301	302	-1	0	0	2
302	303	-1	0	0	2
303	304	-1	0	0	2
305	304	-1	0	0	2
306	305	-1	0	0	2
307	306	-1	0	0	2
294	307	-1	0	0	2
30	40	-1	0	0	2
32	38	-1	0	0	2
39	29	-1	0	0	2
37	31	-1	0	0	2
68	65	-1	0	0	2
69	64	-1	0	0	2
62	57	-1	0	0	2
61	58	-1	0	0	2
54	51	-1	0	0	2
50	55	-1	0	0	2
43	48	-1	0	0	2
47	44	-1	0	0	2
83	78	-1	0	0	2
76	71	-1	0	0	2
75	72	-1	0	0	2
82	79	-1	0	0	2
96	93	-1	0	0	2
89	86	-1	0	0	2
90	85	-1	0	0	2
97	92	-1	0	0	2
12	9	-1	0	0	2
19	16	-1	0	0	2
20	15	-1	0	0	2
27	22	-1	0	0	2
26	23	-1	0	0	2
2	5	-1	0	0	2
149	152	-1	0	0	2
153	148	-1	0	0	2
1	6	-1	0	0	2
13	8	-1	0	0	2
141	146	-1	0	0	2
145	142	-1	0	0	2
264	261	-1	0	0	2
265	260	-1	0	0	2
253	258	-1	0	0	2
254	257	-1	0	0	2
240	243	-1	0	0	2
233	236	-1	0	0	2
250	247	-1	0	0	2
246	251	-1	0	0	2
239	244	-1	0	0	2
232	237	-1	0	0	2
226	229	-1	0	0	2
225	230	-1	0	0	2
274	279	-1	0	0	2
275	278	-1	0	0	2
267	272	-1	0	0	2
268	271	-1	0	0	2
191	194	-1	0	0	2
190	195	-1	0	0	2
183	188	-1	0	0	2
184	187	-1	0	0	2
177	180	-1	0	0	2
176	181	-1	0	0	2
170	173	-1	0	0	2
169	174	-1	0	0	2
163	166	-1	0	0	2
162	167	-1	0	0	2
155	160	-1	0	0	2
156	159	-1	0	0	2
204	209	-1	0	0	2
197	202	-1	0	0	2
205	208	-1	0	0	2
198	201	-1	0	0	2
219	222	-1	0	0	2
212	215	-1	0	0	2
303	306	-1	0	0	2
211	216	-1	0	0	2
223	218	-1	0	0	2
302	307	-1	0	0	2
295	300	-1	0	0	2
296	299	-1	0	0	2
289	292	-1	0	0	2
288	293	-1	0	0	2
281	286	-1	0	0	2
282	285	-1	0	0	2
121	124	-1	0	0	2
118	113	-1	0	0	2
125	120	-1	0	0	2
114	117	-1	0	0	2
107	110	-1	0	0	2
106	111	-1	0	0	2
99	104	-1	0	0	2
103	100	-1	0	0	2
138	135	-1	0	0	2
134	139	-1	0	0	2
127	132	-1	0	0	2
131	128	-1	0	0	2
316	41	-1	0	0	0
[NumArcSegments] = 12
308	309	180	1	0	0	0	1
309	308	180	1	0	0	0	1
310	311	180	5	0	0	0	5
311	310	180	5	0	0	0	5
312	313	180	1	0	0	0	1
313	312	180	1	0	0	0	1
314	315	180	1	0	0	0	1
315	314	180	1	0	0	0	1
319	320	180	1	0	0	0	1
320	319	180	1	0	0	0	1
317	318	180	1	0	0	0	1
318	317	180	1	0	0	0	1
[NumHoles] = 0
[NumBlockLabels] = 116
-13.025910358858853	32.153003892684325	1	-1	0	0	1	1	0
-267	81	1	-1	0	0	0	1	0
53	218	5	-1	0	0	0	1	0
136.80000000000004	24.099999999999994	1	-1	0	0	1	1	0
138.09999999999994	14.999999999999993	1	-1	0	0	1	1	0
102.79999999999998	1.0999999999999963	1	-1	0	0	1	1	0
98.90000000000002	28.399999999999999	1	-1	0	0	1	1	0
128.39999999999995	53.199999999999982	1	-1	0	0	1	1	0
124.49999999999999	61.799999999999969	1	-1	0	0	1	1	0
107.39999999999998	87.59999999999998	1	-1	0	0	1	1	0
86.899999999999977	55	1	-1	0	0	1	1	0
67.299999999999969	78.399999999999977	1	-1	0	0	1	1	0
102.09999999999995	94.099999999999994	1	-1	0	0	1	1	0
78.699999999999989	114.3	1	-1	0	0	1	1	0
70.799999999999969	119.59999999999997	1	-1	0	0	1	1	0
42.599999999999994	93.599999999999994	1	-1	0	0	1	1	0
-14.899999999999997	101.90000000000003	1	-1	0	0	1	1	0
13.699999999999998	101.99999999999996	1	-1	0	0	1	1	0
4.400000000000003	138.90000000000001	1	-1	0	0	1	1	0
34.799999999999983	134.49999999999989	1	-1	0	0	1	1	0
43.399999999999984	131.79999999999995	1	-1	0	0	1	1	0
-3.9000000000000017	138.89999999999992	1	-1	0	0	1	1	0
-43.499999999999979	131.89999999999989	1	-1	0	0	1	1	0
-34.899999999999991	134.59999999999994	1	-1	0	0	1	1	0
-79.199999999999989	114.3	1	-1	0	0	1	1	0
-71.799999999999983	119.19999999999997	1	-1	0	0	1	1	0
-43.199999999999996	93.59999999999998	1	-1	0	0	1	1	0
-66.999999999999972	78.199999999999989	1	-1	0	0	1	1	0
-101.89999999999996	94.199999999999932	1	-1	0	0	1	1	0
-108.09999999999998	87.59999999999998	1	-1	0	0	1	1	0
-124.70000000000002	61.499999999999986	1	-1	0	0	1	1	0
-87.100000000000023	54.499999999999986	1	-1	0	0	1	1	0
-128.19999999999996	53.499999999999972	1	-1	0	0	1	1	0
-136.69999999999996	24.299999999999997	1	-1	0	0	1	1	0
-138.29999999999998	15.000000000000002	1	-1	0	0	1	1	0
-98.999999999999986	27.999999999999996	1	-1	0	0	1	1	0
-136.99999999999994	-24.099999999999998	1	-1	0	0	1	1	0
-138.1999999999999	-15.399999999999997	1	-1	0	0	1	1	0
-103.09999999999997	-1.4999999999999991	1	-1	0	0	1	1	0
-98.799999999999955	-29.699999999999992	1	-1	0	0	1	1	0
-128.19999999999996	-53.599999999999987	1	-1	0	0	1	1	0
-124.80000000000003	-61.499999999999979	1	-1	0	0	1	1	0
-86.199999999999974	-56.399999999999991	1	-1	0	0	1	1	0
-107.79999999999997	-87.599999999999966	1	-1	0	0	1	1	0
-102.39999999999999	-93.799999999999969	1	-1	0	0	1	1	0
-68.499999999999986	-76.999999999999957	1	-1	0	0	1	1	0
-78.899999999999977	-114.69999999999997	1	-1	0	0	1	1	0
-72.100000000000009	-118.8	1	-1	0	0	1	1	0
-42.999999999999979	-131.99999999999994	1	-1	0	0	1	1	0
-43.499999999999986	-93.199999999999974	1	-1	0	0	1	1	0
-34.5	-134.19999999999993	1	-1	0	0	1	1	0
-4.100000000000005	-138.80000000000004	1	-1	0	0	1	1	0
-13.999999999999998	-102.19999999999999	1	-1	0	0	1	1	0
4.2999999999999998	-138.89999999999992	1	-1	0	0	1	1	0
34.799999999999983	-134.49999999999994	1	-1	0	0	1	1	0
14.699999999999989	-101.89999999999996	1	-1	0	0	1	1	0
41.89999999999997	-94.199999999999946	1	-1	0	0	1	1	0
42.800000000000011	-131.99999999999991	1	-1	0	0	1	1	0
71.5	-119.09999999999997	1	-1	0	0	1	1	0
78.299999999999969	-114.89999999999998	1	-1	0	0	1	1	0
102.09999999999998	-94.100000000000023	1	-1	0	0	1	1	0
67.900000000000006	-77.399999999999991	1	-1	0	0	1	1	0
108	-87.399999999999977	1	-1	0	0	1	1	0
87.099999999999937	-54.59999999999998	1	-1	0	0	1	1	0
124.59999999999995	-61.199999999999989	1	-1	0	0	1	1	0
128	-53.499999999999986	1	-1	0	0	1	1	0
98.899999999999977	-28.500000000000007	1	-1	0	0	1	1	0
136.80000000000001	-24.500000000000007	1	-1	0	0	1	1	0
138.09999999999988	-14.899999999999993	1	-1	0	0	1	1	0
86.999999999999972	84.999999999999986	2	-1	0	300.54090910000002	1	1	0